Circuit: *** SPICE deck for cell adder{lay} from library SumAdder

