Circuit: *** SPICE deck for cell AND{sch} from library AND2

