Circuit: *** SPICE deck for cell c1{sch} from library carryoutadder1

Direct Newton iteration for .op point succeeded.

Date: Thu Sep 28 20:38:30 2023
Total elapsed time: 0.236 seconds.

tnom = 27
temp = 27
method = modified trap
totiter = 2751
traniter = 2744
tranpoints = 1148
accept = 1148
rejected = 0
matrix size = 53
fillins = 0
solver = Normal
Matrix Compiler1: 5.82 KB object code size  1.3/0.6/[0.4]
Matrix Compiler2: 6.44 KB object code size  0.6/0.7/[0.4]

