Circuit: *** SPICE deck for cell carryoutadder{sch} from library CarryAdder

Direct Newton iteration for .op point succeeded.

Date: Wed Sep 27 00:36:29 2023
Total elapsed time: 0.255 seconds.

tnom = 27
temp = 27
method = modified trap
totiter = 2722
traniter = 2710
tranpoints = 1148
accept = 1148
rejected = 0
matrix size = 101
fillins = 0
solver = Normal
Thread vector: 36.4/23.1[2] 4.8/2.9[2] 1.7/1.2[2] 0.8/5.6[1]  2592/500
Matrix Compiler1: 11.94 KB object code size  2.8/1.6/[0.9]
Matrix Compiler2: 12.59 KB object code size  1.3/1.9/[0.6]

